      1000.00     300.0         18.20000
        132.0     300.54092     18.094620      0.007887     -0.002003
        583.0     301.01810     16.887392      0.007162     -0.001529
       1054.0     302.97742     13.911652      0.005038     -0.001430
       1547.0     305.01855     12.280877      0.004499     -0.001392
       2063.0     307.25327     10.607561      0.004625     -0.001060
       2609.0     309.60547      8.992741      0.004445     -0.000684
       3182.0     311.95056      7.597155      0.004364     -0.000674
       3792.0     314.45712      6.380867      0.003718     -0.000926
       4442.0     317.53522      5.155534      0.002995     -0.000883
       5138.0     320.77679      3.959560      0.002779     -0.000476
       5888.0     324.03241      2.840503      0.002385      0.000652
       6703.0     327.31509      1.868638      0.001403      0.002449
       7595.0     330.47583      1.088098     -0.000095      0.004732
       8581.0     333.26758      0.560962     -0.003331      0.007506
       9682.0     335.59937      0.249689     -0.010317      0.011170
      10935.0     337.51761      0.091544     -0.021308      0.014156
      12396.0     341.31808      0.031513     -0.015995      0.011730
      13236.0     347.14511      0.019390     -0.004464      0.004706
      14177.0     358.15945      0.012227      0.003835     -0.003283
      15260.0     375.34979      0.007237      0.004811     -0.006159
      16568.0     402.40424      0.003318      0.001233     -0.004101
      17883.0     433.75531      0.001210     -0.001247     -0.001678
      19620.0     476.75565      0.000175     -0.002548     -0.001659
      20743.0     505.63367      0.000023     -0.003212     -0.002187
      22139.0     545.13391      0.000000     -0.003988     -0.002753
      23971.0     599.21838      0.000000     -0.004294     -0.003326
      29000.0     743.86279      0.000000     -0.003885     -0.002140
